[TITLE]
;;Project Title/Notes

[OPTIONS]
;;Option             Value
FLOW_UNITS           CMS
INFILTRATION         HORTON
FLOW_ROUTING         KINWAVE
LINK_OFFSETS         DEPTH
MIN_SLOPE            0
ALLOW_PONDING        NO
SKIP_STEADY_STATE    NO

START_DATE           09/23/2021
START_TIME           00:00:00
REPORT_START_DATE    09/23/2021
REPORT_START_TIME    00:00:00
END_DATE             09/24/2021
END_TIME             00:00:00
SWEEP_START          01/01
SWEEP_END            12/31
DRY_DAYS             5
REPORT_STEP          00:01:00
WET_STEP             00:01:00
DRY_STEP             00:05:00
ROUTING_STEP         0:00:01 
RULE_STEP            00:00:00

INERTIAL_DAMPING     NONE
NORMAL_FLOW_LIMITED  SLOPE
FORCE_MAIN_EQUATION  H-W
VARIABLE_STEP        0.75
LENGTHENING_STEP     0
MIN_SURFAREA         1.167
MAX_TRIALS           8
HEAD_TOLERANCE       0.0015
SYS_FLOW_TOL         5
LAT_FLOW_TOL         5
MINIMUM_STEP         0.5
THREADS              1

[EVAPORATION]
;;Data Source    Parameters
;;-------------- ----------------
CONSTANT         0.0
DRY_ONLY         NO

[RAINGAGES]
;;Name           Format    Interval SCF      Source    
;;-------------- --------- ------ ------ ----------
;Load from external storm file with station ID = stn1.
;The storm is describe in intensity with 1 min interval (0.016666 hr) in mm unit.
Rain             VOLUME    0:01     1.0      FILE       "C:\Users\Philip\OneDrive\Lehigh\0_Proj3_CPS-and-compound-effect\Model\storm.txt"      stn1       MM   

[SUBCATCHMENTS]
;;Name           Rain Gage        Outlet           Area     %Imperv  Width    %Slope   CurbLen  SnowPack        
;;-------------- ---------------- ---------------- -------- -------- -------- -------- -------- ----------------
Sb1              Rain             S1               19.85673 26.215596 110.5595 2.40     0                        
Sb2              Rain             S2               1.77701  18.947368 59.2199  2.43     0                        
Sb3              Rain             S3               22.26345 30.130952 44.2885  3.31     0                        
Sb4              Rain             S4               3.37101  9.526316 103.5867 3.17     0                        
Sb5              Rain             S5               2.38728  41.000000 70.0307  2.45     0                        
Sb6              Rain             S6               1.15028  32.538462 56.8994  3.14     0                        
Sb7              Rain             S7               14.21699 25.279221 46.0024  3.11     0                        
Sb8              Rain             S8               3.15322  17.545455 73.0306  3.71     0                        
Sb9              Rain             S9               12.84458 40.834483 46.3004  2.83     0                        

[SUBAREAS]
;;Subcatchment   N-Imperv   N-Perv     S-Imperv   S-Perv     PctZero    RouteTo    PctRouted 
;;-------------- ---------- ---------- ---------- ---------- ---------- ---------- ----------
Sb1              0.01       0.1        0.05       0.05       25         OUTLET    
Sb2              0.01       0.1        0.05       0.05       25         OUTLET    
Sb3              0.01       0.1        0.05       0.05       25         OUTLET    
Sb4              0.01       0.1        0.05       0.05       25         OUTLET    
Sb5              0.01       0.1        0.05       0.05       25         OUTLET    
Sb6              0.01       0.1        0.05       0.05       25         OUTLET    
Sb7              0.01       0.1        0.05       0.05       25         OUTLET    
Sb8              0.01       0.1        0.05       0.05       25         OUTLET    
Sb9              0.01       0.1        0.05       0.05       25         OUTLET    

[INFILTRATION]
;;Subcatchment   Param1     Param2     Param3     Param4     Param5    
;;-------------- ---------- ---------- ---------- ---------- ----------
Sb1              5.6        0.5        4          7          0         
Sb2              5.6        0.5        4          7          0         
Sb3              5.6        0.5        4          7          0         
Sb4              5.6        0.5        4          7          0         
Sb5              5.6        0.5        4          7          0         
Sb6              5.6        0.5        4          7          0         
Sb7              5.6        0.5        4          7          0         
Sb8              5.6        0.5        4          7          0         
Sb9              5.6        0.5        4          7          0         

[JUNCTIONS]
;;Name           Elevation  MaxDepth   InitDepth  SurDepth   Aponded   
;;-------------- ---------- ---------- ---------- ---------- ----------
J2               111.0      0          0          0          0         
J3               119.0      0          0          0          0         
J4               122.5      0          0          0          0         
J5               112.2      0          0          0          0         
J6               111.0      0          0          0          0         
J7               112.0      0          0          0          0         
J8               115.0      0          0          0          0         
J9               112.2      0          0          0          0         

[OUTFALLS]
;;Name           Elevation  Type       Stage Data       Gated    Route To        
;;-------------- ---------- ---------- ---------------- -------- ----------------
OUTLET           108.5      FREE                        NO                       

[STORAGE]
;;Name           Elev.    MaxDepth   InitDepth  Shape      Curve Name/Params            N/A      Fevap    Psi      Ksat     IMD     
;;-------------- -------- ---------- ----------- ---------- ---------------------------- -------- --------          -------- --------
S1               108.5    2.4000     0          FUNCTIONAL 0         0         19517.916670 50000    0       
S2               111.0    0.6000     0          FUNCTIONAL 0         0         630.000000 50000    0       
S3               119.0    1.8000     0          FUNCTIONAL 0         0         6838.888889 50000    0       
S4               122.5    0.4000     0          FUNCTIONAL 0         0         800.000000 50000    0       
S5               112.2    0.4000     0          FUNCTIONAL 0         0         750.000000 50000    0       
S6               111.0    0.9144     0          FUNCTIONAL 0         0         350.000000 50000    0       
S7               112.0    1.2000     0          FUNCTIONAL 0         0         1885.000000 50000    0       
S8               115.0    1.8000     0          FUNCTIONAL 0         0         3848.333333 50000    0       
S9               112.2    1.1000     0          FUNCTIONAL 0         0         1000.000000 50000    0       

[CONDUITS]
;;Name           From Node        To Node          Length     Roughness  InOffset   OutOffset  InitFlow   MaxFlow   
;;-------------- ---------------- ---------------- ---------- ---------- ---------- ---------- ---------- ----------
C2               J2               S1               280        0.01       0          0          0          0         
C3               J3               S1               522        0.01       0          0          0          0         
C4               J4               S3               550        0.01       0          0          0          0         
C5               J5               S1               373        0.01       0          0          0          0         
C6               J6               S1               150        0.01       0          0          0          0         
C7               J7               S6               163        0.01       0          0          0          0         
C8               J8               S7               275        0.01       0          0          0          0         
C9               J9               S1               275        0.01       0          0          0          0         

[ORIFICES]
;;Name           From Node        To Node          Type         Offset     Qcoeff     Gated    CloseTime 
;;-------------- ---------------- ---------------- ------------ ---------- ---------- -------- ----------
O1               S1               OUTLET           BOTTOM       0          0.65       NO       0         
O2               S2               J2               BOTTOM       0          0.65       NO       0         
O3               S3               J3               BOTTOM       0          0.65       NO       0         
O4               S4               J4               BOTTOM       0          0.65       NO       0         
O5               S5               J5               BOTTOM       0          0.65       NO       0         
O6               S6               J6               BOTTOM       0          0.65       NO       0         
O7               S7               J7               BOTTOM       0          0.65       NO       0         
O8               S8               J8               BOTTOM       0          0.65       NO       0         
O9               S9               J9               BOTTOM       0          0.65       NO       0         

[XSECTIONS]
;;Link           Shape        Geom1            Geom2      Geom3      Geom4      Barrels    Culvert   
;;-------------- ------------ ---------------- ---------- ---------- ---------- ---------- ----------
C2               CIRCULAR     0.60960          0.00000    0          0.0        1.0                  
C3               CIRCULAR     0.60960          0.00000    0          0.0        1.0                  
C4               CIRCULAR     0.91440          0.00000    0          0.0        1.0                  
C5               CIRCULAR     0.91440          0.00000    0          0.0        1.0                  
C6               CIRCULAR     0.91440          0.00000    0          0.0        1.0                  
C7               CIRCULAR     0.91440          0.00000    0          0.0        1.0                  
C8               CIRCULAR     0.45720          0.00000    0          0.0        1.0                  
C9               CIRCULAR     0.91440          0.00000    0          0.0        1.0                  
O1               RECT_CLOSED  0.70104          0.70104    0          0
O2               RECT_CLOSED  0.60960          0.60960    0          0
O3               RECT_CLOSED  0.60960          0.60960    0          0
O4               RECT_CLOSED  0.91440          0.91440    0          0
O5               RECT_CLOSED  0.91440          0.91440    0          0
O6               RECT_CLOSED  0.91440          0.91440    0          0
O7               RECT_CLOSED  0.91440          0.91440    0          0
O8               RECT_CLOSED  0.45720          0.45720    0          0
O9               RECT_CLOSED  0.91440          0.91440    0          0

[REPORT]
;;Reporting Options
SUBCATCHMENTS ALL
NODES ALL
LINKS ALL

[TAGS]

[MAP]
DIMENSIONS 2643237.650 494275.532 2646941.350 499385.653
Units      None

[COORDINATES]
;;Node           X-Coord            Y-Coord           
;;-------------- ------------------ ------------------
J2               2645943.963        496542.402        
J3               2645431.121        497172.143        
J4               2645509.575        498584.908        
J5               2645039.578        496197.190        
J6               2645435.523        495710.744        
J7               2645043.349        496038.812        
J8               2644470.172        495970.936        
J9               2645013.182        495812.558        
OUTLET           2645734.870        494841.646        
S1               2645878.285        495460.597        
S2               2645923.574        496623.017        
S3               2645357.461        497257.064        
S4               2645508.424        498668.575        
S5               2645032.889        496283.349        
S6               2645349.912        495777.620        
S7               2644897.021        496041.807        
S8               2644353.552        495981.421        
S9               2644927.214        495724.783        

[VERTICES]
;;Link           X-Coord            Y-Coord           
;;-------------- ------------------ ------------------

[Polygons]
;;Subcatchment   X-Coord            Y-Coord           
;;-------------- ------------------ ------------------
Sb1              2645880.000        497814.789        
Sb1              2645884.000        497798.385        
Sb1              2645884.000        497781.981        
Sb1              2645887.000        497745.892        
Sb1              2645894.000        497706.522        
Sb1              2645897.000        497644.185        
Sb1              2645903.000        497627.781        
Sb1              2645907.000        497558.883        
Sb1              2645913.000        497526.075        
Sb1              2645917.000        497473.581        
Sb1              2645923.000        497437.492        
Sb1              2645926.000        497407.964        
Sb1              2645930.000        497394.841        
Sb1              2645930.000        497388.279        
Sb1              2645933.000        497339.067        
Sb1              2645940.000        497322.662        
Sb1              2645936.000        497299.697        
Sb1              2645946.000        497296.416        
Sb1              2645943.000        497289.854        
Sb1              2645943.000        497270.169        
Sb1              2645946.000        497240.642        
Sb1              2645953.000        497230.799        
Sb1              2645949.000        497220.956        
Sb1              2645949.000        497217.675        
Sb1              2645953.000        497171.743        
Sb1              2645953.000        497168.463        
Sb1              2645956.000        497142.216        
Sb1              2645962.000        497138.935        
Sb1              2645959.000        497125.812        
Sb1              2645966.000        497093.003        
Sb1              2645969.000        497047.072        
Sb1              2645969.000        497033.948        
Sb1              2645972.000        497014.263        
Sb1              2645972.000        497007.701        
Sb1              2645976.000        496984.736        
Sb1              2645924.000        496993.649        
Sb1              2645848.000        497005.554        
Sb1              2645761.000        496977.903        
Sb1              2645615.000        496967.569        
Sb1              2645585.000        496971.183        
Sb1              2645543.000        496951.927        
Sb1              2645539.000        496919.119        
Sb1              2645539.000        496912.557        
Sb1              2645536.000        496905.995        
Sb1              2645529.000        496883.029        
Sb1              2645533.000        496860.063        
Sb1              2645487.000        496856.782        
Sb1              2645483.000        496840.378        
Sb1              2645490.000        496837.097        
Sb1              2645529.000        496837.097        
Sb1              2645536.000        496830.536        
Sb1              2645539.000        496810.851        
Sb1              2645549.000        496794.447        
Sb1              2645552.000        496784.604        
Sb1              2645543.000        496781.323        
Sb1              2645539.000        496751.796        
Sb1              2645546.000        496748.515        
Sb1              2645549.000        496741.953        
Sb1              2645569.000        496738.672        
Sb1              2645566.000        496699.302        
Sb1              2645566.000        496692.740        
Sb1              2645569.000        496682.898        
Sb1              2645575.000        496679.617        
Sb1              2645579.000        496656.651        
Sb1              2645585.000        496653.370        
Sb1              2645588.000        496643.528        
Sb1              2645588.000        496640.247        
Sb1              2645579.000        496633.685        
Sb1              2645566.000        496636.966        
Sb1              2645562.000        496636.966        
Sb1              2645546.000        496633.685        
Sb1              2645533.000        496614.000        
Sb1              2645623.000        496609.624        
Sb1              2645783.000        496588.328        
Sb1              2645902.000        496520.526        
Sb1              2645985.000        496532.616        
Sb1              2646031.000        496558.225        
Sb1              2646035.000        496495.889        
Sb1              2646041.000        496469.643        
Sb1              2646028.000        496423.711        
Sb1              2646022.000        496417.149        
Sb1              2646012.000        496413.868        
Sb1              2646005.000        496417.149        
Sb1              2646001.000        496405.555        
Sb1              2645992.000        496387.621        
Sb1              2645979.000        496384.340        
Sb1              2645976.000        496390.902        
Sb1              2645959.000        496397.464        
Sb1              2645943.000        496390.902        
Sb1              2645930.000        496384.341        
Sb1              2645923.000        496384.341        
Sb1              2645910.000        496397.464        
Sb1              2645907.000        496407.307        
Sb1              2645890.000        496404.026        
Sb1              2645887.000        496420.430        
Sb1              2645880.000        496423.711        
Sb1              2645864.000        496417.149        
Sb1              2645858.000        496413.868        
Sb1              2645848.000        496420.430        
Sb1              2645762.000        496417.149        
Sb1              2645739.000        496410.587        
Sb1              2645710.000        496413.868        
Sb1              2645703.000        496407.307        
Sb1              2645697.000        496404.026        
Sb1              2645690.000        496390.902        
Sb1              2645684.000        496367.936        
Sb1              2645680.000        496361.375        
Sb1              2645657.000        496358.094        
Sb1              2645651.000        496348.251        
Sb1              2645651.000        496344.970        
Sb1              2645671.000        496338.409        
Sb1              2645687.000        496331.847        
Sb1              2645690.000        496318.724        
Sb1              2645690.000        496308.881        
Sb1              2645693.000        496295.758        
Sb1              2645700.000        496285.915        
Sb1              2645703.000        496272.792        
Sb1              2645710.000        496269.511        
Sb1              2645713.000        496262.950        
Sb1              2645733.000        496259.669        
Sb1              2645736.000        496266.230        
Sb1              2645759.000        496269.511        
Sb1              2645762.000        496262.950        
Sb1              2645769.000        496259.669        
Sb1              2645772.000        496253.107        
Sb1              2645785.000        496246.545        
Sb1              2645792.000        496239.984        
Sb1              2645792.000        496230.141        
Sb1              2645795.000        496220.299        
Sb1              2645805.000        496217.018        
Sb1              2645808.000        496207.175        
Sb1              2645815.000        496203.894        
Sb1              2645818.000        496197.332        
Sb1              2645825.000        496194.051        
Sb1              2645831.000        496187.490        
Sb1              2645838.000        496180.928        
Sb1              2645841.000        496174.366        
Sb1              2645848.000        496164.524        
Sb1              2645851.000        496154.681        
Sb1              2645858.000        496151.401        
Sb1              2645861.000        496144.839        
Sb1              2645861.000        496138.277        
Sb1              2645864.000        496125.154        
Sb1              2645877.000        496118.592        
Sb1              2645880.000        496112.031        
Sb1              2645887.000        496108.750        
Sb1              2645890.000        496102.188        
Sb1              2645907.000        495754.419        
Sb1              2645926.000        495760.980        
Sb1              2645969.000        495757.699        
Sb1              2645982.000        495757.699        
Sb1              2645999.000        495754.419        
Sb1              2646002.000        495760.980        
Sb1              2646031.000        495764.261        
Sb1              2646045.000        495764.261        
Sb1              2646054.000        495767.542        
Sb1              2646067.000        495767.542        
Sb1              2646097.000        495770.823        
Sb1              2646100.000        495764.261        
Sb1              2646113.000        495760.980        
Sb1              2646120.000        495754.419        
Sb1              2646127.000        495751.138        
Sb1              2646130.000        495688.802        
Sb1              2646136.000        495678.959        
Sb1              2646140.000        495619.904        
Sb1              2646146.000        495610.062        
Sb1              2646143.000        495593.657        
Sb1              2646150.000        495567.410        
Sb1              2646153.000        495534.602        
Sb1              2646159.000        495531.321        
Sb1              2646169.000        495531.321        
Sb1              2646195.000        495528.040        
Sb1              2646215.000        495521.478        
Sb1              2646232.000        495524.759        
Sb1              2646235.000        495531.321        
Sb1              2646248.000        495534.602        
Sb1              2646261.000        495537.883        
Sb1              2646287.000        495541.163        
Sb1              2646291.000        495541.163        
Sb1              2646291.000        495537.883        
Sb1              2646294.000        495528.040        
Sb1              2646304.000        495521.478        
Sb1              2646307.000        495514.917        
Sb1              2646317.000        495508.355        
Sb1              2646320.000        495498.513        
Sb1              2646327.000        495495.232        
Sb1              2646330.000        495488.670        
Sb1              2646340.000        495491.951        
Sb1              2646343.000        495482.108        
Sb1              2646356.000        495485.389        
Sb1              2646369.000        495478.828        
Sb1              2646415.000        495468.985        
Sb1              2646419.000        495459.143        
Sb1              2646432.000        495455.862        
Sb1              2646435.000        495455.862        
Sb1              2646448.000        495459.143        
Sb1              2646461.000        495475.547        
Sb1              2646468.000        495478.828        
Sb1              2646471.000        495498.513        
Sb1              2646481.000        495495.232        
Sb1              2646487.000        495488.670        
Sb1              2646507.000        495485.389        
Sb1              2646510.000        495491.951        
Sb1              2646524.000        495508.355        
Sb1              2646530.000        495514.917        
Sb1              2646546.000        495521.478        
Sb1              2646553.000        495514.917        
Sb1              2646560.000        495511.636        
Sb1              2646563.000        495521.478        
Sb1              2646579.000        495524.759        
Sb1              2646589.000        495518.198        
Sb1              2646599.000        495514.917        
Sb1              2646602.000        495505.074        
Sb1              2646615.000        495501.793        
Sb1              2646619.000        495495.232        
Sb1              2646625.000        495491.951        
Sb1              2646629.000        495478.828        
Sb1              2646629.000        495472.266        
Sb1              2646632.000        495465.704        
Sb1              2646638.000        495455.862        
Sb1              2646635.000        495449.300        
Sb1              2646642.000        495439.458        
Sb1              2646645.000        495432.896        
Sb1              2646655.000        495429.615        
Sb1              2646658.000        495436.177        
Sb1              2646668.000        495432.896        
Sb1              2646671.000        495426.334        
Sb1              2646678.000        495423.053        
Sb1              2646681.000        495413.211        
Sb1              2646691.000        495409.930        
Sb1              2646694.000        495400.087        
Sb1              2646704.000        495396.806        
Sb1              2646707.000        495390.244        
Sb1              2646720.000        495386.964        
Sb1              2646724.000        495367.279        
Sb1              2646733.000        495360.717        
Sb1              2646737.000        495347.594        
Sb1              2646743.000        495344.313        
Sb1              2646747.000        495337.751        
Sb1              2646753.000        495334.470        
Sb1              2646756.000        495324.628        
Sb1              2646763.000        495318.066        
Sb1              2646766.000        495262.292        
Sb1              2646773.000        495252.449        
Sb1              2646770.000        495236.045        
Sb1              2646766.000        495226.203        
Sb1              2646760.000        495219.641        
Sb1              2646753.000        495213.079        
Sb1              2646730.000        495209.798        
Sb1              2646727.000        495203.237        
Sb1              2646717.000        495199.956        
Sb1              2646711.000        495193.394        
Sb1              2646697.000        495190.113        
Sb1              2646694.000        495183.551        
Sb1              2646658.000        495180.270        
Sb1              2646655.000        495186.832        
Sb1              2646648.000        495183.551        
Sb1              2646645.000        495176.990        
Sb1              2646635.000        495173.709        
Sb1              2646619.000        495160.585        
Sb1              2646609.000        495163.866        
Sb1              2646583.000        495157.305        
Sb1              2646563.000        495160.585        
Sb1              2646560.000        495144.181        
Sb1              2646543.000        495140.900        
Sb1              2646530.000        495134.339        
Sb1              2646501.000        495131.058        
Sb1              2646484.000        495131.058        
Sb1              2646442.000        495127.777        
Sb1              2646435.000        495134.339        
Sb1              2646422.000        495140.900        
Sb1              2646419.000        495154.024        
Sb1              2646405.000        495160.585        
Sb1              2646399.000        495167.147        
Sb1              2646382.000        495173.709        
Sb1              2646386.000        495186.832        
Sb1              2646386.000        495203.237        
Sb1              2646382.000        495219.641        
Sb1              2646373.000        495226.203        
Sb1              2646363.000        495232.764        
Sb1              2646356.000        495236.045        
Sb1              2646343.000        495242.607        
Sb1              2646330.000        495239.326        
Sb1              2646327.000        495232.764        
Sb1              2646294.000        495229.484        
Sb1              2646277.000        495229.484        
Sb1              2646264.000        495239.326        
Sb1              2646254.000        495245.888        
Sb1              2646248.000        495242.607        
Sb1              2646238.000        495236.045        
Sb1              2646225.000        495239.326        
Sb1              2646222.000        495226.203        
Sb1              2646212.000        495222.922        
Sb1              2646192.000        495219.641        
Sb1              2646163.000        495190.113        
Sb1              2646156.000        495176.990        
Sb1              2646143.000        495170.428        
Sb1              2646146.000        495150.743        
Sb1              2646123.000        495140.900        
Sb1              2646097.000        495140.900        
Sb1              2646077.000        495137.620        
Sb1              2646074.000        495131.058        
Sb1              2646058.000        495134.339        
Sb1              2646045.000        495117.935        
Sb1              2646051.000        495114.654        
Sb1              2646018.000        495094.969        
Sb1              2646008.000        495104.811        
Sb1              2645995.000        495111.373        
Sb1              2645972.000        495114.654        
Sb1              2645969.000        495108.092        
Sb1              2645959.000        495111.373        
Sb1              2645956.000        495117.935        
Sb1              2645946.000        495121.215        
Sb1              2645943.000        495127.777        
Sb1              2645936.000        495131.058        
Sb1              2645933.000        495137.620        
Sb1              2645926.000        495140.900        
Sb1              2645917.000        495147.462        
Sb1              2645894.000        495150.743        
Sb1              2645890.000        495137.620        
Sb1              2645880.000        495134.339        